Circuit: * C:\users\hiro\Documents\UCT\Year 3\EEE3088F\Main Project\Design-files\Power Circuit.asc

WARNING: Node NC_02 is floating.

WARNING: Less than two connections to node NC_01.  This node is used by V§USB.
WARNING: Less than two connections to node NC_02.  This node is used by V§USB.
Direct Newton iteration for .op point succeeded.

Date: Fri Mar 10 12:19:58 2023
Total elapsed time: 0.375 seconds.

tnom = 27
temp = 27
method = modified trap
totiter = 2116
traniter = 2106
tranpoints = 1054
accept = 1054
rejected = 0
matrix size = 8
fillins = 0
solver = Normal
Matrix Compiler1: 344 bytes object code size  0.2/0.2/[0.2]
Matrix Compiler2: 528 bytes object code size  0.2/0.2/[0.2]

